src/i2x/models/ieee_lvn/graph/line.dss
New "Line.1" bus1=p1.1.2.3 bus2=p2.1.2.3 phases=3 length=150 units=ft linecode=trans1 Seasons=1 Ratings=[400,] normamps=400 emergamps=600
New "Line.2" bus1=p2.1.2.3 bus2=p3.1.2.3 phases=3 length=150 units=ft linecode=trans1 Seasons=1 Ratings=[400,] normamps=400 emergamps=600
New "Line.3" bus1=p2.1.2.3 bus2=p7.1.2.3 phases=3 length=150 units=ft linecode=trans1 Seasons=1 Ratings=[400,] normamps=400 emergamps=600
New "Line.4" bus1=p6.1.2.3 bus2=p11.1.2.3 phases=3 length=50 units=ft linecode=pri1 Seasons=1 Ratings=[400,] normamps=400 emergamps=600
New "Line.5" bus1=p6.1.2.3 bus2=p27.1.2.3 phases=3 length=50 units=ft linecode=pri1 Seasons=1 Ratings=[400,] normamps=400 emergamps=600
New "Line.6" bus1=p6.1.2.3 bus2=p44.1.2.3 phases=3 length=25 units=ft linecode=pri1 Seasons=1 Ratings=[400,] normamps=400 emergamps=600
New "Line.7" bus1=p44.1.2.3 bus2=p45.1.2.3 phases=3 length=25 units=ft linecode=pri1 Seasons=1 Ratings=[400,] normamps=400 emergamps=600
New "Line.8" bus1=p44.1.2.3 bus2=p62.1.2.3 phases=3 length=25 units=ft linecode=pri1 Seasons=1 Ratings=[400,] normamps=400 emergamps=600
New "Line.9" bus1=p10.1.2.3 bus2=p81.1.2.3 phases=3 length=50 units=ft linecode=pri1 Seasons=1 Ratings=[400,] normamps=400 emergamps=600
New "Line.10" bus1=p10.1.2.3 bus2=p97.1.2.3 phases=3 length=50 units=ft linecode=pri1 Seasons=1 Ratings=[400,] normamps=400 emergamps=600
New "Line.11" bus1=p10.1.2.3 bus2=p116.1.2.3 phases=3 length=25 units=ft linecode=pri1 Seasons=1 Ratings=[400,] normamps=400 emergamps=600
New "Line.12" bus1=p116.1.2.3 bus2=p117.1.2.3 phases=3 length=25 units=ft linecode=pri1 Seasons=1 Ratings=[400,] normamps=400 emergamps=600
New "Line.13" bus1=p116.1.2.3 bus2=p134.1.2.3 phases=3 length=25 units=ft linecode=pri1 Seasons=1 Ratings=[400,] normamps=400 emergamps=600
New "Line.14" bus1=p12.1.2.3 bus2=p13.1.2.3 phases=3 length=2500 units=ft linecode=pri1 Seasons=1 Ratings=[400,] normamps=400 emergamps=600
New "Line.15" bus1=p13.1.2.3 bus2=p14.1.2.3 phases=3 length=100 units=ft linecode=pri1 Seasons=1 Ratings=[400,] normamps=400 emergamps=600
New "Line.16" bus1=p13.1.2.3 bus2=p15.1.2.3 phases=3 length=100 units=ft linecode=pri1 Seasons=1 Ratings=[400,] normamps=400 emergamps=600
New "Line.17" bus1=p15.1.2.3 bus2=p16.1.2.3 phases=3 length=100 units=ft linecode=pri1 Seasons=1 Ratings=[400,] normamps=400 emergamps=600
New "Line.18" bus1=p16.1.2.3 bus2=p17.1.2.3 phases=3 length=100 units=ft linecode=pri1 Seasons=1 Ratings=[400,] normamps=400 emergamps=600
New "Line.19" bus1=p15.1.2.3 bus2=p18.1.2.3 phases=3 length=100 units=ft linecode=pri1 Seasons=1 Ratings=[400,] normamps=400 emergamps=600
New "Line.20" bus1=p18.1.2.3 bus2=p19.1.2.3 phases=3 length=100 units=ft linecode=pri1 Seasons=1 Ratings=[400,] normamps=400 emergamps=600
New "Line.21" bus1=p18.1.2.3 bus2=p20.1.2.3 phases=3 length=100 units=ft linecode=pri1 Seasons=1 Ratings=[400,] normamps=400 emergamps=600
New "Line.22" bus1=p20.1.2.3 bus2=p21.1.2.3 phases=3 length=100 units=ft linecode=pri1 Seasons=1 Ratings=[400,] normamps=400 emergamps=600
New "Line.23" bus1=p21.1.2.3 bus2=p22.1.2.3 phases=3 length=100 units=ft linecode=pri1 Seasons=1 Ratings=[400,] normamps=400 emergamps=600
New "Line.24" bus1=p20.1.2.3 bus2=p23.1.2.3 phases=3 length=100 units=ft linecode=pri1 Seasons=1 Ratings=[400,] normamps=400 emergamps=600
New "Line.25" bus1=p23.1.2.3 bus2=p24.1.2.3 phases=3 length=100 units=ft linecode=pri1 Seasons=1 Ratings=[400,] normamps=400 emergamps=600
New "Line.26" bus1=p23.1.2.3 bus2=p25.1.2.3 phases=3 length=100 units=ft linecode=pri1 Seasons=1 Ratings=[400,] normamps=400 emergamps=600
New "Line.27" bus1=p25.1.2.3 bus2=p26.1.2.3 phases=3 length=100 units=ft linecode=pri1 Seasons=1 Ratings=[400,] normamps=400 emergamps=600
New "Line.28" bus1=p28.1.2.3 bus2=p29.1.2.3 phases=3 length=2500 units=ft linecode=pri1 Seasons=1 Ratings=[400,] normamps=400 emergamps=600
New "Line.29" bus1=p29.1.2.3 bus2=p30.1.2.3 phases=3 length=100 units=ft linecode=pri1 Seasons=1 Ratings=[400,] normamps=400 emergamps=600
New "Line.30" bus1=p29.1.2.3 bus2=p31.1.2.3 phases=3 length=100 units=ft linecode=pri1 Seasons=1 Ratings=[400,] normamps=400 emergamps=600
New "Line.31" bus1=p31.1.2.3 bus2=p32.1.2.3 phases=3 length=100 units=ft linecode=pri1 Seasons=1 Ratings=[400,] normamps=400 emergamps=600
New "Line.32" bus1=p31.1.2.3 bus2=p33.1.2.3 phases=3 length=100 units=ft linecode=pri1 Seasons=1 Ratings=[400,] normamps=400 emergamps=600
New "Line.33" bus1=p33.1.2.3 bus2=p34.1.2.3 phases=3 length=100 units=ft linecode=pri1 Seasons=1 Ratings=[400,] normamps=400 emergamps=600
New "Line.34" bus1=p33.1.2.3 bus2=p35.1.2.3 phases=3 length=100 units=ft linecode=pri1 Seasons=1 Ratings=[400,] normamps=400 emergamps=600
New "Line.35" bus1=p35.1.2.3 bus2=p36.1.2.3 phases=3 length=100 units=ft linecode=pri1 Seasons=1 Ratings=[400,] normamps=400 emergamps=600
New "Line.36" bus1=p35.1.2.3 bus2=p37.1.2.3 phases=3 length=100 units=ft linecode=pri1 Seasons=1 Ratings=[400,] normamps=400 emergamps=600
New "Line.37" bus1=p37.1.2.3 bus2=p38.1.2.3 phases=3 length=100 units=ft linecode=pri1 Seasons=1 Ratings=[400,] normamps=400 emergamps=600
New "Line.38" bus1=p37.1.2.3 bus2=p39.1.2.3 phases=3 length=100 units=ft linecode=pri1 Seasons=1 Ratings=[400,] normamps=400 emergamps=600
New "Line.39" bus1=p39.1.2.3 bus2=p40.1.2.3 phases=3 length=100 units=ft linecode=pri1 Seasons=1 Ratings=[400,] normamps=400 emergamps=600
New "Line.40" bus1=p40.1.2.3 bus2=p41.1.2.3 phases=3 length=100 units=ft linecode=pri1 Seasons=1 Ratings=[400,] normamps=400 emergamps=600
New "Line.41" bus1=p39.1.2.3 bus2=p42.1.2.3 phases=3 length=100 units=ft linecode=pri1 Seasons=1 Ratings=[400,] normamps=400 emergamps=600
New "Line.42" bus1=p42.1.2.3 bus2=p43.1.2.3 phases=3 length=100 units=ft linecode=pri1 Seasons=1 Ratings=[400,] normamps=400 emergamps=600
New "Line.43" bus1=p46.1.2.3 bus2=p47.1.2.3 phases=3 length=2500 units=ft linecode=pri1 Seasons=1 Ratings=[400,] normamps=400 emergamps=600
New "Line.44" bus1=p47.1.2.3 bus2=p48.1.2.3 phases=3 length=100 units=ft linecode=pri1 Seasons=1 Ratings=[400,] normamps=400 emergamps=600
New "Line.45" bus1=p47.1.2.3 bus2=p49.1.2.3 phases=3 length=100 units=ft linecode=pri1 Seasons=1 Ratings=[400,] normamps=400 emergamps=600
New "Line.46" bus1=p49.1.2.3 bus2=p50.1.2.3 phases=3 length=100 units=ft linecode=pri1 Seasons=1 Ratings=[400,] normamps=400 emergamps=600
New "Line.47" bus1=p49.1.2.3 bus2=p51.1.2.3 phases=3 length=100 units=ft linecode=pri1 Seasons=1 Ratings=[400,] normamps=400 emergamps=600
New "Line.48" bus1=p51.1.2.3 bus2=p52.1.2.3 phases=3 length=100 units=ft linecode=pri1 Seasons=1 Ratings=[400,] normamps=400 emergamps=600
New "Line.49" bus1=p51.1.2.3 bus2=p53.1.2.3 phases=3 length=100 units=ft linecode=pri1 Seasons=1 Ratings=[400,] normamps=400 emergamps=600
New "Line.50" bus1=p53.1.2.3 bus2=p54.1.2.3 phases=3 length=100 units=ft linecode=pri1 Seasons=1 Ratings=[400,] normamps=400 emergamps=600
New "Line.51" bus1=p54.1.2.3 bus2=p55.1.2.3 phases=3 length=100 units=ft linecode=pri1 Seasons=1 Ratings=[400,] normamps=400 emergamps=600
New "Line.52" bus1=p55.1.2.3 bus2=p56.1.2.3 phases=3 length=100 units=ft linecode=pri1 Seasons=1 Ratings=[400,] normamps=400 emergamps=600
New "Line.53" bus1=p53.1.2.3 bus2=p57.1.2.3 phases=3 length=100 units=ft linecode=pri1 Seasons=1 Ratings=[400,] normamps=400 emergamps=600
New "Line.54" bus1=p57.1.2.3 bus2=p58.1.2.3 phases=3 length=100 units=ft linecode=pri1 Seasons=1 Ratings=[400,] normamps=400 emergamps=600
New "Line.55" bus1=p57.1.2.3 bus2=p59.1.2.3 phases=3 length=100 units=ft linecode=pri1 Seasons=1 Ratings=[400,] normamps=400 emergamps=600
New "Line.56" bus1=p59.1.2.3 bus2=p60.1.2.3 phases=3 length=100 units=ft linecode=pri1 Seasons=1 Ratings=[400,] normamps=400 emergamps=600
New "Line.57" bus1=p60.1.2.3 bus2=p61.1.2.3 phases=3 length=100 units=ft linecode=pri1 Seasons=1 Ratings=[400,] normamps=400 emergamps=600
New "Line.58" bus1=p63.1.2.3 bus2=p64.1.2.3 phases=3 length=2500 units=ft linecode=pri1 Seasons=1 Ratings=[400,] normamps=400 emergamps=600
New "Line.59" bus1=p64.1.2.3 bus2=p65.1.2.3 phases=3 length=100 units=ft linecode=pri1 Seasons=1 Ratings=[400,] normamps=400 emergamps=600
New "Line.60" bus1=p64.1.2.3 bus2=p66.1.2.3 phases=3 length=100 units=ft linecode=pri1 Seasons=1 Ratings=[400,] normamps=400 emergamps=600
New "Line.61" bus1=p66.1.2.3 bus2=p67.1.2.3 phases=3 length=100 units=ft linecode=pri1 Seasons=1 Ratings=[400,] normamps=400 emergamps=600
New "Line.62" bus1=p66.1.2.3 bus2=p68.1.2.3 phases=3 length=100 units=ft linecode=pri1 Seasons=1 Ratings=[400,] normamps=400 emergamps=600
New "Line.63" bus1=p68.1.2.3 bus2=p69.1.2.3 phases=3 length=100 units=ft linecode=pri1 Seasons=1 Ratings=[400,] normamps=400 emergamps=600
New "Line.64" bus1=p68.1.2.3 bus2=p70.1.2.3 phases=3 length=100 units=ft linecode=pri1 Seasons=1 Ratings=[400,] normamps=400 emergamps=600
New "Line.65" bus1=p70.1.2.3 bus2=p71.1.2.3 phases=3 length=100 units=ft linecode=pri1 Seasons=1 Ratings=[400,] normamps=400 emergamps=600
New "Line.66" bus1=p70.1.2.3 bus2=p72.1.2.3 phases=3 length=100 units=ft linecode=pri1 Seasons=1 Ratings=[400,] normamps=400 emergamps=600
New "Line.67" bus1=p72.1.2.3 bus2=p73.1.2.3 phases=3 length=100 units=ft linecode=pri1 Seasons=1 Ratings=[400,] normamps=400 emergamps=600
New "Line.68" bus1=p73.1.2.3 bus2=p74.1.2.3 phases=3 length=100 units=ft linecode=pri1 Seasons=1 Ratings=[400,] normamps=400 emergamps=600
New "Line.69" bus1=p72.1.2.3 bus2=p75.1.2.3 phases=3 length=100 units=ft linecode=pri1 Seasons=1 Ratings=[400,] normamps=400 emergamps=600
New "Line.70" bus1=p75.1.2.3 bus2=p76.1.2.3 phases=3 length=100 units=ft linecode=pri1 Seasons=1 Ratings=[400,] normamps=400 emergamps=600
New "Line.71" bus1=p75.1.2.3 bus2=p77.1.2.3 phases=3 length=100 units=ft linecode=pri1 Seasons=1 Ratings=[400,] normamps=400 emergamps=600
New "Line.72" bus1=p77.1.2.3 bus2=p78.1.2.3 phases=3 length=100 units=ft linecode=pri1 Seasons=1 Ratings=[400,] normamps=400 emergamps=600
New "Line.73" bus1=p77.1.2.3 bus2=p79.1.2.3 phases=3 length=100 units=ft linecode=pri1 Seasons=1 Ratings=[400,] normamps=400 emergamps=600
New "Line.74" bus1=p79.1.2.3 bus2=p80.1.2.3 phases=3 length=100 units=ft linecode=pri1 Seasons=1 Ratings=[400,] normamps=400 emergamps=600
New "Line.75" bus1=p82.1.2.3 bus2=p83.1.2.3 phases=3 length=2500 units=ft linecode=pri1 Seasons=1 Ratings=[400,] normamps=400 emergamps=600
New "Line.76" bus1=p83.1.2.3 bus2=p84.1.2.3 phases=3 length=100 units=ft linecode=pri1 Seasons=1 Ratings=[400,] normamps=400 emergamps=600
New "Line.77" bus1=p83.1.2.3 bus2=p85.1.2.3 phases=3 length=100 units=ft linecode=pri1 Seasons=1 Ratings=[400,] normamps=400 emergamps=600
New "Line.78" bus1=p85.1.2.3 bus2=p86.1.2.3 phases=3 length=100 units=ft linecode=pri1 Seasons=1 Ratings=[400,] normamps=400 emergamps=600
New "Line.79" bus1=p86.1.2.3 bus2=p87.1.2.3 phases=3 length=100 units=ft linecode=pri1 Seasons=1 Ratings=[400,] normamps=400 emergamps=600
New "Line.80" bus1=p85.1.2.3 bus2=p88.1.2.3 phases=3 length=100 units=ft linecode=pri1 Seasons=1 Ratings=[400,] normamps=400 emergamps=600
New "Line.81" bus1=p88.1.2.3 bus2=p89.1.2.3 phases=3 length=100 units=ft linecode=pri1 Seasons=1 Ratings=[400,] normamps=400 emergamps=600
New "Line.82" bus1=p88.1.2.3 bus2=p90.1.2.3 phases=3 length=100 units=ft linecode=pri1 Seasons=1 Ratings=[400,] normamps=400 emergamps=600
New "Line.83" bus1=p90.1.2.3 bus2=p91.1.2.3 phases=3 length=100 units=ft linecode=pri1 Seasons=1 Ratings=[400,] normamps=400 emergamps=600
New "Line.84" bus1=p91.1.2.3 bus2=p92.1.2.3 phases=3 length=100 units=ft linecode=pri1 Seasons=1 Ratings=[400,] normamps=400 emergamps=600
New "Line.85" bus1=p90.1.2.3 bus2=p93.1.2.3 phases=3 length=100 units=ft linecode=pri1 Seasons=1 Ratings=[400,] normamps=400 emergamps=600
New "Line.86" bus1=p93.1.2.3 bus2=p94.1.2.3 phases=3 length=100 units=ft linecode=pri1 Seasons=1 Ratings=[400,] normamps=400 emergamps=600
New "Line.87" bus1=p93.1.2.3 bus2=p95.1.2.3 phases=3 length=100 units=ft linecode=pri1 Seasons=1 Ratings=[400,] normamps=400 emergamps=600
New "Line.88" bus1=p95.1.2.3 bus2=p96.1.2.3 phases=3 length=100 units=ft linecode=pri1 Seasons=1 Ratings=[400,] normamps=400 emergamps=600
New "Line.89" bus1=p98.1.2.3 bus2=p99.1.2.3 phases=3 length=2500 units=ft linecode=pri1 Seasons=1 Ratings=[400,] normamps=400 emergamps=600
New "Line.90" bus1=p99.1.2.3 bus2=p100.1.2.3 phases=3 length=100 units=ft linecode=pri1 Seasons=1 Ratings=[400,] normamps=400 emergamps=600
New "Line.91" bus1=p99.1.2.3 bus2=p101.1.2.3 phases=3 length=100 units=ft linecode=pri1 Seasons=1 Ratings=[400,] normamps=400 emergamps=600
New "Line.92" bus1=p101.1.2.3 bus2=p102.1.2.3 phases=3 length=100 units=ft linecode=pri1 Seasons=1 Ratings=[400,] normamps=400 emergamps=600
New "Line.93" bus1=p101.1.2.3 bus2=p103.1.2.3 phases=3 length=100 units=ft linecode=pri1 Seasons=1 Ratings=[400,] normamps=400 emergamps=600
New "Line.94" bus1=p103.1.2.3 bus2=p104.1.2.3 phases=3 length=100 units=ft linecode=pri1 Seasons=1 Ratings=[400,] normamps=400 emergamps=600
New "Line.95" bus1=p103.1.2.3 bus2=p105.1.2.3 phases=3 length=100 units=ft linecode=pri1 Seasons=1 Ratings=[400,] normamps=400 emergamps=600
New "Line.96" bus1=p105.1.2.3 bus2=p106.1.2.3 phases=3 length=100 units=ft linecode=pri1 Seasons=1 Ratings=[400,] normamps=400 emergamps=600
New "Line.97" bus1=p106.1.2.3 bus2=p107.1.2.3 phases=3 length=100 units=ft linecode=pri1 Seasons=1 Ratings=[400,] normamps=400 emergamps=600
New "Line.98" bus1=p105.1.2.3 bus2=p108.1.2.3 phases=3 length=100 units=ft linecode=pri1 Seasons=1 Ratings=[400,] normamps=400 emergamps=600
New "Line.99" bus1=p108.1.2.3 bus2=p109.1.2.3 phases=3 length=100 units=ft linecode=pri1 Seasons=1 Ratings=[400,] normamps=400 emergamps=600
New "Line.100" bus1=p108.1.2.3 bus2=p110.1.2.3 phases=3 length=100 units=ft linecode=pri1 Seasons=1 Ratings=[400,] normamps=400 emergamps=600
New "Line.101" bus1=p110.1.2.3 bus2=p111.1.2.3 phases=3 length=100 units=ft linecode=pri1 Seasons=1 Ratings=[400,] normamps=400 emergamps=600
New "Line.102" bus1=p110.1.2.3 bus2=p112.1.2.3 phases=3 length=100 units=ft linecode=pri1 Seasons=1 Ratings=[400,] normamps=400 emergamps=600
New "Line.103" bus1=p112.1.2.3 bus2=p113.1.2.3 phases=3 length=100 units=ft linecode=pri1 Seasons=1 Ratings=[400,] normamps=400 emergamps=600
New "Line.104" bus1=p112.1.2.3 bus2=p114.1.2.3 phases=3 length=100 units=ft linecode=pri1 Seasons=1 Ratings=[400,] normamps=400 emergamps=600
New "Line.105" bus1=p114.1.2.3 bus2=p115.1.2.3 phases=3 length=100 units=ft linecode=pri1 Seasons=1 Ratings=[400,] normamps=400 emergamps=600
New "Line.106" bus1=p118.1.2.3 bus2=p119.1.2.3 phases=3 length=2500 units=ft linecode=pri1 Seasons=1 Ratings=[400,] normamps=400 emergamps=600
New "Line.107" bus1=p119.1.2.3 bus2=p120.1.2.3 phases=3 length=100 units=ft linecode=pri1 Seasons=1 Ratings=[400,] normamps=400 emergamps=600
New "Line.108" bus1=p119.1.2.3 bus2=p121.1.2.3 phases=3 length=100 units=ft linecode=pri1 Seasons=1 Ratings=[400,] normamps=400 emergamps=600
New "Line.109" bus1=p121.1.2.3 bus2=p122.1.2.3 phases=3 length=100 units=ft linecode=pri1 Seasons=1 Ratings=[400,] normamps=400 emergamps=600
New "Line.110" bus1=p121.1.2.3 bus2=p123.1.2.3 phases=3 length=100 units=ft linecode=pri1 Seasons=1 Ratings=[400,] normamps=400 emergamps=600
New "Line.111" bus1=p123.1.2.3 bus2=p124.1.2.3 phases=3 length=100 units=ft linecode=pri1 Seasons=1 Ratings=[400,] normamps=400 emergamps=600
New "Line.112" bus1=p123.1.2.3 bus2=p125.1.2.3 phases=3 length=100 units=ft linecode=pri1 Seasons=1 Ratings=[400,] normamps=400 emergamps=600
New "Line.113" bus1=p125.1.2.3 bus2=p126.1.2.3 phases=3 length=100 units=ft linecode=pri1 Seasons=1 Ratings=[400,] normamps=400 emergamps=600
New "Line.114" bus1=p125.1.2.3 bus2=p127.1.2.3 phases=3 length=100 units=ft linecode=pri1 Seasons=1 Ratings=[400,] normamps=400 emergamps=600
New "Line.115" bus1=p127.1.2.3 bus2=p128.1.2.3 phases=3 length=100 units=ft linecode=pri1 Seasons=1 Ratings=[400,] normamps=400 emergamps=600
New "Line.116" bus1=p127.1.2.3 bus2=p129.1.2.3 phases=3 length=100 units=ft linecode=pri1 Seasons=1 Ratings=[400,] normamps=400 emergamps=600
New "Line.117" bus1=p129.1.2.3 bus2=p130.1.2.3 phases=3 length=100 units=ft linecode=pri1 Seasons=1 Ratings=[400,] normamps=400 emergamps=600
New "Line.118" bus1=p130.1.2.3 bus2=p131.1.2.3 phases=3 length=100 units=ft linecode=pri1 Seasons=1 Ratings=[400,] normamps=400 emergamps=600
New "Line.119" bus1=p129.1.2.3 bus2=p132.1.2.3 phases=3 length=100 units=ft linecode=pri1 Seasons=1 Ratings=[400,] normamps=400 emergamps=600
New "Line.120" bus1=p132.1.2.3 bus2=p133.1.2.3 phases=3 length=100 units=ft linecode=pri1 Seasons=1 Ratings=[400,] normamps=400 emergamps=600
New "Line.121" bus1=p135.1.2.3 bus2=p136.1.2.3 phases=3 length=2500 units=ft linecode=pri1 Seasons=1 Ratings=[400,] normamps=400 emergamps=600
New "Line.122" bus1=p136.1.2.3 bus2=p137.1.2.3 phases=3 length=100 units=ft linecode=pri1 Seasons=1 Ratings=[400,] normamps=400 emergamps=600
New "Line.123" bus1=p136.1.2.3 bus2=p138.1.2.3 phases=3 length=100 units=ft linecode=pri1 Seasons=1 Ratings=[400,] normamps=400 emergamps=600
New "Line.124" bus1=p138.1.2.3 bus2=p139.1.2.3 phases=3 length=100 units=ft linecode=pri1 Seasons=1 Ratings=[400,] normamps=400 emergamps=600
New "Line.125" bus1=p139.1.2.3 bus2=p140.1.2.3 phases=3 length=100 units=ft linecode=pri1 Seasons=1 Ratings=[400,] normamps=400 emergamps=600
New "Line.126" bus1=p138.1.2.3 bus2=p141.1.2.3 phases=3 length=100 units=ft linecode=pri1 Seasons=1 Ratings=[400,] normamps=400 emergamps=600
New "Line.127" bus1=p141.1.2.3 bus2=p142.1.2.3 phases=3 length=100 units=ft linecode=pri1 Seasons=1 Ratings=[400,] normamps=400 emergamps=600
New "Line.128" bus1=p141.1.2.3 bus2=p143.1.2.3 phases=3 length=100 units=ft linecode=pri1 Seasons=1 Ratings=[400,] normamps=400 emergamps=600
New "Line.129" bus1=p143.1.2.3 bus2=p144.1.2.3 phases=3 length=100 units=ft linecode=pri1 Seasons=1 Ratings=[400,] normamps=400 emergamps=600
New "Line.130" bus1=p144.1.2.3 bus2=p145.1.2.3 phases=3 length=100 units=ft linecode=pri1 Seasons=1 Ratings=[400,] normamps=400 emergamps=600
New "Line.131" bus1=p145.1.2.3 bus2=p146.1.2.3 phases=3 length=100 units=ft linecode=pri1 Seasons=1 Ratings=[400,] normamps=400 emergamps=600
New "Line.132" bus1=p143.1.2.3 bus2=p147.1.2.3 phases=3 length=100 units=ft linecode=pri1 Seasons=1 Ratings=[400,] normamps=400 emergamps=600
New "Line.133" bus1=p147.1.2.3 bus2=p148.1.2.3 phases=3 length=100 units=ft linecode=pri1 Seasons=1 Ratings=[400,] normamps=400 emergamps=600
New "Line.134" bus1=p147.1.2.3 bus2=p149.1.2.3 phases=3 length=100 units=ft linecode=pri1 Seasons=1 Ratings=[400,] normamps=400 emergamps=600
New "Line.135" bus1=p149.1.2.3 bus2=p150.1.2.3 phases=3 length=100 units=ft linecode=pri1 Seasons=1 Ratings=[400,] normamps=400 emergamps=600
New "Line.136" bus1=s194.1.2.3 bus2=s193.1.2.3 phases=3 length=10 units=ft linecode=sec5 Seasons=1 Ratings=[400,] normamps=400 emergamps=600
New "Line.137" bus1=s195.1.2.3 bus2=s193.1.2.3 phases=3 length=10 units=ft linecode=sec5 Seasons=1 Ratings=[400,] normamps=400 emergamps=600
New "Line.138" bus1=s199.1.2.3 bus2=s198.1.2.3 phases=3 length=10 units=ft linecode=sec5 Seasons=1 Ratings=[400,] normamps=400 emergamps=600
New "Line.139" bus1=s200.1.2.3 bus2=s198.1.2.3 phases=3 length=10 units=ft linecode=sec5 Seasons=1 Ratings=[400,] normamps=400 emergamps=600
New "Line.140" bus1=s204.1.2.3 bus2=s203.1.2.3 phases=3 length=10 units=ft linecode=sec5 Seasons=1 Ratings=[400,] normamps=400 emergamps=600
New "Line.141" bus1=s205.1.2.3 bus2=s203.1.2.3 phases=3 length=10 units=ft linecode=sec5 Seasons=1 Ratings=[400,] normamps=400 emergamps=600
New "Line.142" bus1=s206.1.2.3 bus2=s203.1.2.3 phases=3 length=10 units=ft linecode=sec5 Seasons=1 Ratings=[400,] normamps=400 emergamps=600
New "Line.143" bus1=s211.1.2.3 bus2=s210.1.2.3 phases=3 length=10 units=ft linecode=sec5 Seasons=1 Ratings=[400,] normamps=400 emergamps=600
New "Line.144" bus1=s212.1.2.3 bus2=s210.1.2.3 phases=3 length=10 units=ft linecode=sec5 Seasons=1 Ratings=[400,] normamps=400 emergamps=600
New "Line.145" bus1=s213.1.2.3 bus2=s210.1.2.3 phases=3 length=10 units=ft linecode=sec5 Seasons=1 Ratings=[400,] normamps=400 emergamps=600
New "Line.146" bus1=s218.1.2.3 bus2=s217.1.2.3 phases=3 length=10 units=ft linecode=sec5 Seasons=1 Ratings=[400,] normamps=400 emergamps=600
New "Line.147" bus1=s219.1.2.3 bus2=s217.1.2.3 phases=3 length=10 units=ft linecode=sec5 Seasons=1 Ratings=[400,] normamps=400 emergamps=600
New "Line.148" bus1=s220.1.2.3 bus2=s217.1.2.3 phases=3 length=10 units=ft linecode=sec5 Seasons=1 Ratings=[400,] normamps=400 emergamps=600
New "Line.149" bus1=s225.1.2.3 bus2=s224.1.2.3 phases=3 length=10 units=ft linecode=sec5 Seasons=1 Ratings=[400,] normamps=400 emergamps=600
New "Line.150" bus1=s226.1.2.3 bus2=s224.1.2.3 phases=3 length=10 units=ft linecode=sec5 Seasons=1 Ratings=[400,] normamps=400 emergamps=600
New "Line.151" bus1=s227.1.2.3 bus2=s224.1.2.3 phases=3 length=10 units=ft linecode=sec5 Seasons=1 Ratings=[400,] normamps=400 emergamps=600
New "Line.152" bus1=s232.1.2.3 bus2=s231.1.2.3 phases=3 length=10 units=ft linecode=sec5 Seasons=1 Ratings=[400,] normamps=400 emergamps=600
New "Line.153" bus1=s233.1.2.3 bus2=s231.1.2.3 phases=3 length=10 units=ft linecode=sec5 Seasons=1 Ratings=[400,] normamps=400 emergamps=600
New "Line.154" bus1=s237.1.2.3 bus2=s236.1.2.3 phases=3 length=10 units=ft linecode=sec5 Seasons=1 Ratings=[400,] normamps=400 emergamps=600
New "Line.155" bus1=s239.1.2.3 bus2=s236.1.2.3 phases=3 length=10 units=ft linecode=sec5 Seasons=1 Ratings=[400,] normamps=400 emergamps=600
New "Line.156" bus1=s1.1.2.3 bus2=s2.1.2.3 phases=3 length=100 units=ft linecode=sec6 Seasons=1 Ratings=[400,] normamps=400 emergamps=600
New "Line.157" bus1=s2.1.2.3 bus2=s3.1.2.3 phases=3 length=25 units=ft linecode=sec6 Seasons=1 Ratings=[400,] normamps=400 emergamps=600
New "Line.158" bus1=s3.1.2.3 bus2=s4.1.2.3 phases=3 length=25 units=ft linecode=sec6 Seasons=1 Ratings=[400,] normamps=400 emergamps=600
New "Line.159" bus1=s4.1.2.3 bus2=s5.1.2.3 phases=3 length=100 units=ft linecode=sec6 Seasons=1 Ratings=[400,] normamps=400 emergamps=600
New "Line.160" bus1=s5.1.2.3 bus2=s6.1.2.3 phases=3 length=100 units=ft linecode=sec6 Seasons=1 Ratings=[400,] normamps=400 emergamps=600
New "Line.161" bus1=s6.1.2.3 bus2=s7.1.2.3 phases=3 length=100 units=ft linecode=sec6 Seasons=1 Ratings=[400,] normamps=400 emergamps=600
New "Line.162" bus1=s7.1.2.3 bus2=s8.1.2.3 phases=3 length=25 units=ft linecode=sec6 Seasons=1 Ratings=[400,] normamps=400 emergamps=600
New "Line.163" bus1=s8.1.2.3 bus2=s9.1.2.3 phases=3 length=25 units=ft linecode=sec6 Seasons=1 Ratings=[400,] normamps=400 emergamps=600
New "Line.164" bus1=s9.1.2.3 bus2=s10.1.2.3 phases=3 length=100 units=ft linecode=sec6 Seasons=1 Ratings=[400,] normamps=400 emergamps=600
New "Line.165" bus1=s10.1.2.3 bus2=s11.1.2.3 phases=3 length=100 units=ft linecode=sec6 Seasons=1 Ratings=[400,] normamps=400 emergamps=600
New "Line.166" bus1=s11.1.2.3 bus2=s12.1.2.3 phases=3 length=100 units=ft linecode=sec6 Seasons=1 Ratings=[400,] normamps=400 emergamps=600
New "Line.167" bus1=s12.1.2.3 bus2=s13.1.2.3 phases=3 length=25 units=ft linecode=sec6 Seasons=1 Ratings=[400,] normamps=400 emergamps=600
New "Line.168" bus1=s13.1.2.3 bus2=s14.1.2.3 phases=3 length=25 units=ft linecode=sec6 Seasons=1 Ratings=[400,] normamps=400 emergamps=600
New "Line.169" bus1=s14.1.2.3 bus2=s15.1.2.3 phases=3 length=100 units=ft linecode=sec6 Seasons=1 Ratings=[400,] normamps=400 emergamps=600
New "Line.170" bus1=s15.1.2.3 bus2=s16.1.2.3 phases=3 length=100 units=ft linecode=sec6 Seasons=1 Ratings=[400,] normamps=400 emergamps=600
New "Line.171" bus1=s16.1.2.3 bus2=s17.1.2.3 phases=3 length=100 units=ft linecode=sec6 Seasons=1 Ratings=[400,] normamps=400 emergamps=600
New "Line.172" bus1=s17.1.2.3 bus2=s18.1.2.3 phases=3 length=25 units=ft linecode=sec6 Seasons=1 Ratings=[400,] normamps=400 emergamps=600
New "Line.173" bus1=s18.1.2.3 bus2=s19.1.2.3 phases=3 length=25 units=ft linecode=sec6 Seasons=1 Ratings=[400,] normamps=400 emergamps=600
New "Line.174" bus1=s19.1.2.3 bus2=s20.1.2.3 phases=3 length=100 units=ft linecode=sec6 Seasons=1 Ratings=[400,] normamps=400 emergamps=600
New "Line.175" bus1=s20.1.2.3 bus2=s21.1.2.3 phases=3 length=100 units=ft linecode=sec6 Seasons=1 Ratings=[400,] normamps=400 emergamps=600
New "Line.176" bus1=s42.1.2.3 bus2=s43.1.2.3 phases=3 length=100 units=ft linecode=sec6 Seasons=1 Ratings=[400,] normamps=400 emergamps=600
New "Line.177" bus1=s43.1.2.3 bus2=s44.1.2.3 phases=3 length=25 units=ft linecode=sec6 Seasons=1 Ratings=[400,] normamps=400 emergamps=600
New "Line.178" bus1=s44.1.2.3 bus2=s45.1.2.3 phases=3 length=100 units=ft linecode=sec6 Seasons=1 Ratings=[400,] normamps=400 emergamps=600
New "Line.179" bus1=s45.1.2.3 bus2=s46.1.2.3 phases=3 length=25 units=ft linecode=sec6 Seasons=1 Ratings=[400,] normamps=400 emergamps=600
New "Line.180" bus1=s46.1.2.3 bus2=s47.1.2.3 phases=3 length=100 units=ft linecode=sec6 Seasons=1 Ratings=[400,] normamps=400 emergamps=600
New "Line.181" bus1=s47.1.2.3 bus2=s48.1.2.3 phases=3 length=100 units=ft linecode=sec6 Seasons=1 Ratings=[400,] normamps=400 emergamps=600
New "Line.182" bus1=s48.1.2.3 bus2=s49.1.2.3 phases=3 length=25 units=ft linecode=sec6 Seasons=1 Ratings=[400,] normamps=400 emergamps=600
New "Line.183" bus1=s49.1.2.3 bus2=s50.1.2.3 phases=3 length=100 units=ft linecode=sec6 Seasons=1 Ratings=[400,] normamps=400 emergamps=600
New "Line.184" bus1=s50.1.2.3 bus2=s51.1.2.3 phases=3 length=25 units=ft linecode=sec6 Seasons=1 Ratings=[400,] normamps=400 emergamps=600
New "Line.185" bus1=s51.1.2.3 bus2=s52.1.2.3 phases=3 length=100 units=ft linecode=sec6 Seasons=1 Ratings=[400,] normamps=400 emergamps=600
New "Line.186" bus1=s52.1.2.3 bus2=s53.1.2.3 phases=3 length=100 units=ft linecode=sec6 Seasons=1 Ratings=[400,] normamps=400 emergamps=600
New "Line.187" bus1=s53.1.2.3 bus2=s54.1.2.3 phases=3 length=25 units=ft linecode=sec6 Seasons=1 Ratings=[400,] normamps=400 emergamps=600
New "Line.188" bus1=s54.1.2.3 bus2=s55.1.2.3 phases=3 length=100 units=ft linecode=sec6 Seasons=1 Ratings=[400,] normamps=400 emergamps=600
New "Line.189" bus1=s55.1.2.3 bus2=s56.1.2.3 phases=3 length=25 units=ft linecode=sec6 Seasons=1 Ratings=[400,] normamps=400 emergamps=600
New "Line.190" bus1=s56.1.2.3 bus2=s57.1.2.3 phases=3 length=100 units=ft linecode=sec6 Seasons=1 Ratings=[400,] normamps=400 emergamps=600
New "Line.191" bus1=s57.1.2.3 bus2=s58.1.2.3 phases=3 length=100 units=ft linecode=sec6 Seasons=1 Ratings=[400,] normamps=400 emergamps=600
New "Line.192" bus1=s58.1.2.3 bus2=s59.1.2.3 phases=3 length=25 units=ft linecode=sec6 Seasons=1 Ratings=[400,] normamps=400 emergamps=600
New "Line.193" bus1=s59.1.2.3 bus2=s60.1.2.3 phases=3 length=100 units=ft linecode=sec6 Seasons=1 Ratings=[400,] normamps=400 emergamps=600
New "Line.194" bus1=s60.1.2.3 bus2=s61.1.2.3 phases=3 length=25 units=ft linecode=sec6 Seasons=1 Ratings=[400,] normamps=400 emergamps=600
New "Line.195" bus1=s61.1.2.3 bus2=s62.1.2.3 phases=3 length=100 units=ft linecode=sec6 Seasons=1 Ratings=[400,] normamps=400 emergamps=600
New "Line.196" bus1=s83.1.2.3 bus2=s84.1.2.3 phases=3 length=100 units=ft linecode=sec6 Seasons=1 Ratings=[400,] normamps=400 emergamps=600
New "Line.197" bus1=s84.1.2.3 bus2=s85.1.2.3 phases=3 length=25 units=ft linecode=sec6 Seasons=1 Ratings=[400,] normamps=400 emergamps=600
New "Line.198" bus1=s85.1.2.3 bus2=s86.1.2.3 phases=3 length=100 units=ft linecode=sec6 Seasons=1 Ratings=[400,] normamps=400 emergamps=600
New "Line.199" bus1=s86.1.2.3 bus2=s87.1.2.3 phases=3 length=25 units=ft linecode=sec6 Seasons=1 Ratings=[400,] normamps=400 emergamps=600
New "Line.200" bus1=s87.1.2.3 bus2=s88.1.2.3 phases=3 length=100 units=ft linecode=sec6 Seasons=1 Ratings=[400,] normamps=400 emergamps=600
New "Line.201" bus1=s88.1.2.3 bus2=s89.1.2.3 phases=3 length=100 units=ft linecode=sec6 Seasons=1 Ratings=[400,] normamps=400 emergamps=600
New "Line.202" bus1=s89.1.2.3 bus2=s90.1.2.3 phases=3 length=25 units=ft linecode=sec6 Seasons=1 Ratings=[400,] normamps=400 emergamps=600
New "Line.203" bus1=s90.1.2.3 bus2=s91.1.2.3 phases=3 length=100 units=ft linecode=sec6 Seasons=1 Ratings=[400,] normamps=400 emergamps=600
New "Line.204" bus1=s91.1.2.3 bus2=s92.1.2.3 phases=3 length=25 units=ft linecode=sec6 Seasons=1 Ratings=[400,] normamps=400 emergamps=600
New "Line.205" bus1=s92.1.2.3 bus2=s93.1.2.3 phases=3 length=100 units=ft linecode=sec6 Seasons=1 Ratings=[400,] normamps=400 emergamps=600
New "Line.206" bus1=s93.1.2.3 bus2=s94.1.2.3 phases=3 length=100 units=ft linecode=sec6 Seasons=1 Ratings=[400,] normamps=400 emergamps=600
New "Line.207" bus1=s94.1.2.3 bus2=s95.1.2.3 phases=3 length=25 units=ft linecode=sec6 Seasons=1 Ratings=[400,] normamps=400 emergamps=600
New "Line.208" bus1=s95.1.2.3 bus2=s96.1.2.3 phases=3 length=100 units=ft linecode=sec6 Seasons=1 Ratings=[400,] normamps=400 emergamps=600
New "Line.209" bus1=s96.1.2.3 bus2=s97.1.2.3 phases=3 length=25 units=ft linecode=sec6 Seasons=1 Ratings=[400,] normamps=400 emergamps=600
New "Line.210" bus1=s97.1.2.3 bus2=s98.1.2.3 phases=3 length=100 units=ft linecode=sec6 Seasons=1 Ratings=[400,] normamps=400 emergamps=600
New "Line.211" bus1=s98.1.2.3 bus2=s99.1.2.3 phases=3 length=100 units=ft linecode=sec6 Seasons=1 Ratings=[400,] normamps=400 emergamps=600
New "Line.212" bus1=s99.1.2.3 bus2=s100.1.2.3 phases=3 length=25 units=ft linecode=sec6 Seasons=1 Ratings=[400,] normamps=400 emergamps=600
New "Line.213" bus1=s100.1.2.3 bus2=s101.1.2.3 phases=3 length=100 units=ft linecode=sec6 Seasons=1 Ratings=[400,] normamps=400 emergamps=600
New "Line.214" bus1=s101.1.2.3 bus2=s102.1.2.3 phases=3 length=25 units=ft linecode=sec6 Seasons=1 Ratings=[400,] normamps=400 emergamps=600
New "Line.215" bus1=s102.1.2.3 bus2=s103.1.2.3 phases=3 length=100 units=ft linecode=sec6 Seasons=1 Ratings=[400,] normamps=400 emergamps=600
New "Line.216" bus1=s124.1.2.3 bus2=s125.1.2.3 phases=3 length=100 units=ft linecode=sec6 Seasons=1 Ratings=[400,] normamps=400 emergamps=600
New "Line.217" bus1=s125.1.2.3 bus2=s126.1.2.3 phases=3 length=25 units=ft linecode=sec6 Seasons=1 Ratings=[400,] normamps=400 emergamps=600
New "Line.218" bus1=s126.1.2.3 bus2=s127.1.2.3 phases=3 length=100 units=ft linecode=sec6 Seasons=1 Ratings=[400,] normamps=400 emergamps=600
New "Line.219" bus1=s127.1.2.3 bus2=s128.1.2.3 phases=3 length=25 units=ft linecode=sec6 Seasons=1 Ratings=[400,] normamps=400 emergamps=600
New "Line.220" bus1=s128.1.2.3 bus2=s129.1.2.3 phases=3 length=100 units=ft linecode=sec6 Seasons=1 Ratings=[400,] normamps=400 emergamps=600
New "Line.221" bus1=s129.1.2.3 bus2=s130.1.2.3 phases=3 length=100 units=ft linecode=sec6 Seasons=1 Ratings=[400,] normamps=400 emergamps=600
New "Line.222" bus1=s130.1.2.3 bus2=s131.1.2.3 phases=3 length=100 units=ft linecode=sec6 Seasons=1 Ratings=[400,] normamps=400 emergamps=600
New "Line.223" bus1=s131.1.2.3 bus2=s132.1.2.3 phases=3 length=25 units=ft linecode=sec6 Seasons=1 Ratings=[400,] normamps=400 emergamps=600
New "Line.224" bus1=s132.1.2.3 bus2=s133.1.2.3 phases=3 length=25 units=ft linecode=sec6 Seasons=1 Ratings=[400,] normamps=400 emergamps=600
New "Line.225" bus1=s133.1.2.3 bus2=s134.1.2.3 phases=3 length=100 units=ft linecode=sec6 Seasons=1 Ratings=[400,] normamps=400 emergamps=600
New "Line.226" bus1=s134.1.2.3 bus2=s135.1.2.3 phases=3 length=100 units=ft linecode=sec6 Seasons=1 Ratings=[400,] normamps=400 emergamps=600
New "Line.227" bus1=s135.1.2.3 bus2=s136.1.2.3 phases=3 length=100 units=ft linecode=sec6 Seasons=1 Ratings=[400,] normamps=400 emergamps=600
New "Line.228" bus1=s136.1.2.3 bus2=s137.1.2.3 phases=3 length=25 units=ft linecode=sec6 Seasons=1 Ratings=[400,] normamps=400 emergamps=600
New "Line.229" bus1=s137.1.2.3 bus2=s138.1.2.3 phases=3 length=25 units=ft linecode=sec6 Seasons=1 Ratings=[400,] normamps=400 emergamps=600
New "Line.230" bus1=s138.1.2.3 bus2=s139.1.2.3 phases=3 length=100 units=ft linecode=sec6 Seasons=1 Ratings=[400,] normamps=400 emergamps=600
New "Line.231" bus1=s139.1.2.3 bus2=s140.1.2.3 phases=3 length=100 units=ft linecode=sec6 Seasons=1 Ratings=[400,] normamps=400 emergamps=600
New "Line.232" bus1=s140.1.2.3 bus2=s141.1.2.3 phases=3 length=100 units=ft linecode=sec6 Seasons=1 Ratings=[400,] normamps=400 emergamps=600
New "Line.233" bus1=s141.1.2.3 bus2=s142.1.2.3 phases=3 length=25 units=ft linecode=sec6 Seasons=1 Ratings=[400,] normamps=400 emergamps=600
New "Line.234" bus1=s142.1.2.3 bus2=s143.1.2.3 phases=3 length=25 units=ft linecode=sec6 Seasons=1 Ratings=[400,] normamps=400 emergamps=600
New "Line.235" bus1=s143.1.2.3 bus2=s144.1.2.3 phases=3 length=100 units=ft linecode=sec6 Seasons=1 Ratings=[400,] normamps=400 emergamps=600
New "Line.236" bus1=s1.1.2.3 bus2=s22.1.2.3 phases=3 length=100 units=ft linecode=sec6 Seasons=1 Ratings=[400,] normamps=400 emergamps=600
New "Line.237" bus1=s22.1.2.3 bus2=s27.1.2.3 phases=3 length=100 units=ft linecode=sec6 Seasons=1 Ratings=[400,] normamps=400 emergamps=600
New "Line.238" bus1=s27.1.2.3 bus2=s32.1.2.3 phases=3 length=25 units=ft linecode=sec6 Seasons=1 Ratings=[400,] normamps=400 emergamps=600
New "Line.239" bus1=s32.1.2.3 bus2=s37.1.2.3 phases=3 length=25 units=ft linecode=sec6 Seasons=1 Ratings=[400,] normamps=400 emergamps=600
New "Line.240" bus1=s37.1.2.3 bus2=s42.1.2.3 phases=3 length=100 units=ft linecode=sec6 Seasons=1 Ratings=[400,] normamps=400 emergamps=600
New "Line.241" bus1=s42.1.2.3 bus2=s63.1.2.3 phases=3 length=100 units=ft linecode=sec6 Seasons=1 Ratings=[400,] normamps=400 emergamps=600
New "Line.242" bus1=s63.1.2.3 bus2=s68.1.2.3 phases=3 length=100 units=ft linecode=sec6 Seasons=1 Ratings=[400,] normamps=400 emergamps=600
New "Line.243" bus1=s68.1.2.3 bus2=s73.1.2.3 phases=3 length=25 units=ft linecode=sec6 Seasons=1 Ratings=[400,] normamps=400 emergamps=600
New "Line.244" bus1=s73.1.2.3 bus2=s78.1.2.3 phases=3 length=25 units=ft linecode=sec6 Seasons=1 Ratings=[400,] normamps=400 emergamps=600
New "Line.245" bus1=s78.1.2.3 bus2=s83.1.2.3 phases=3 length=100 units=ft linecode=sec6 Seasons=1 Ratings=[400,] normamps=400 emergamps=600
New "Line.246" bus1=s83.1.2.3 bus2=s104.1.2.3 phases=3 length=100 units=ft linecode=sec6 Seasons=1 Ratings=[400,] normamps=400 emergamps=600
New "Line.247" bus1=s104.1.2.3 bus2=s109.1.2.3 phases=3 length=100 units=ft linecode=sec6 Seasons=1 Ratings=[400,] normamps=400 emergamps=600
New "Line.248" bus1=s109.1.2.3 bus2=s114.1.2.3 phases=3 length=25 units=ft linecode=sec6 Seasons=1 Ratings=[400,] normamps=400 emergamps=600
New "Line.249" bus1=s114.1.2.3 bus2=s119.1.2.3 phases=3 length=25 units=ft linecode=sec6 Seasons=1 Ratings=[400,] normamps=400 emergamps=600
New "Line.250" bus1=s119.1.2.3 bus2=s124.1.2.3 phases=3 length=100 units=ft linecode=sec6 Seasons=1 Ratings=[400,] normamps=400 emergamps=600
New "Line.251" bus1=s6.1.2.3 bus2=s23.1.2.3 phases=3 length=100 units=ft linecode=sec6 Seasons=1 Ratings=[400,] normamps=400 emergamps=600
New "Line.252" bus1=s23.1.2.3 bus2=s28.1.2.3 phases=3 length=25 units=ft linecode=sec6 Seasons=1 Ratings=[400,] normamps=400 emergamps=600
New "Line.253" bus1=s28.1.2.3 bus2=s33.1.2.3 phases=3 length=100 units=ft linecode=sec6 Seasons=1 Ratings=[400,] normamps=400 emergamps=600
New "Line.254" bus1=s33.1.2.3 bus2=s38.1.2.3 phases=3 length=25 units=ft linecode=sec6 Seasons=1 Ratings=[400,] normamps=400 emergamps=600
New "Line.255" bus1=s38.1.2.3 bus2=s47.1.2.3 phases=3 length=100 units=ft linecode=sec6 Seasons=1 Ratings=[400,] normamps=400 emergamps=600
New "Line.256" bus1=s47.1.2.3 bus2=s64.1.2.3 phases=3 length=100 units=ft linecode=sec6 Seasons=1 Ratings=[400,] normamps=400 emergamps=600
New "Line.257" bus1=s64.1.2.3 bus2=s69.1.2.3 phases=3 length=25 units=ft linecode=sec6 Seasons=1 Ratings=[400,] normamps=400 emergamps=600
New "Line.258" bus1=s69.1.2.3 bus2=s74.1.2.3 phases=3 length=100 units=ft linecode=sec6 Seasons=1 Ratings=[400,] normamps=400 emergamps=600
New "Line.259" bus1=s74.1.2.3 bus2=s79.1.2.3 phases=3 length=25 units=ft linecode=sec6 Seasons=1 Ratings=[400,] normamps=400 emergamps=600
New "Line.260" bus1=s79.1.2.3 bus2=s88.1.2.3 phases=3 length=100 units=ft linecode=sec6 Seasons=1 Ratings=[400,] normamps=400 emergamps=600
New "Line.261" bus1=s88.1.2.3 bus2=s105.1.2.3 phases=3 length=100 units=ft linecode=sec6 Seasons=1 Ratings=[400,] normamps=400 emergamps=600
New "Line.262" bus1=s105.1.2.3 bus2=s110.1.2.3 phases=3 length=25 units=ft linecode=sec6 Seasons=1 Ratings=[400,] normamps=400 emergamps=600
New "Line.263" bus1=s110.1.2.3 bus2=s115.1.2.3 phases=3 length=100 units=ft linecode=sec6 Seasons=1 Ratings=[400,] normamps=400 emergamps=600
New "Line.264" bus1=s115.1.2.3 bus2=s120.1.2.3 phases=3 length=25 units=ft linecode=sec6 Seasons=1 Ratings=[400,] normamps=400 emergamps=600
New "Line.265" bus1=s120.1.2.3 bus2=s129.1.2.3 phases=3 length=100 units=ft linecode=sec6 Seasons=1 Ratings=[400,] normamps=400 emergamps=600
New "Line.266" bus1=s11.1.2.3 bus2=s24.1.2.3 phases=3 length=100 units=ft linecode=sec6 Seasons=1 Ratings=[400,] normamps=400 emergamps=600
New "Line.267" bus1=s24.1.2.3 bus2=s29.1.2.3 phases=3 length=25 units=ft linecode=sec6 Seasons=1 Ratings=[400,] normamps=400 emergamps=600
New "Line.268" bus1=s29.1.2.3 bus2=s34.1.2.3 phases=3 length=100 units=ft linecode=sec6 Seasons=1 Ratings=[400,] normamps=400 emergamps=600
New "Line.269" bus1=s34.1.2.3 bus2=s39.1.2.3 phases=3 length=25 units=ft linecode=sec6 Seasons=1 Ratings=[400,] normamps=400 emergamps=600
New "Line.270" bus1=s39.1.2.3 bus2=s52.1.2.3 phases=3 length=100 units=ft linecode=sec6 Seasons=1 Ratings=[400,] normamps=400 emergamps=600
New "Line.271" bus1=s52.1.2.3 bus2=s65.1.2.3 phases=3 length=100 units=ft linecode=sec6 Seasons=1 Ratings=[400,] normamps=400 emergamps=600
New "Line.272" bus1=s65.1.2.3 bus2=s70.1.2.3 phases=3 length=25 units=ft linecode=sec6 Seasons=1 Ratings=[400,] normamps=400 emergamps=600
New "Line.273" bus1=s70.1.2.3 bus2=s75.1.2.3 phases=3 length=100 units=ft linecode=sec6 Seasons=1 Ratings=[400,] normamps=400 emergamps=600
New "Line.274" bus1=s75.1.2.3 bus2=s80.1.2.3 phases=3 length=25 units=ft linecode=sec6 Seasons=1 Ratings=[400,] normamps=400 emergamps=600
New "Line.275" bus1=s80.1.2.3 bus2=s93.1.2.3 phases=3 length=100 units=ft linecode=sec6 Seasons=1 Ratings=[400,] normamps=400 emergamps=600
New "Line.276" bus1=s93.1.2.3 bus2=s106.1.2.3 phases=3 length=100 units=ft linecode=sec6 Seasons=1 Ratings=[400,] normamps=400 emergamps=600
New "Line.277" bus1=s106.1.2.3 bus2=s111.1.2.3 phases=3 length=25 units=ft linecode=sec6 Seasons=1 Ratings=[400,] normamps=400 emergamps=600
New "Line.278" bus1=s111.1.2.3 bus2=s116.1.2.3 phases=3 length=100 units=ft linecode=sec6 Seasons=1 Ratings=[400,] normamps=400 emergamps=600
New "Line.279" bus1=s116.1.2.3 bus2=s121.1.2.3 phases=3 length=25 units=ft linecode=sec6 Seasons=1 Ratings=[400,] normamps=400 emergamps=600
New "Line.280" bus1=s121.1.2.3 bus2=s134.1.2.3 phases=3 length=100 units=ft linecode=sec6 Seasons=1 Ratings=[400,] normamps=400 emergamps=600
New "Line.281" bus1=s16.1.2.3 bus2=s25.1.2.3 phases=3 length=100 units=ft linecode=sec6 Seasons=1 Ratings=[400,] normamps=400 emergamps=600
New "Line.282" bus1=s25.1.2.3 bus2=s30.1.2.3 phases=3 length=25 units=ft linecode=sec6 Seasons=1 Ratings=[400,] normamps=400 emergamps=600
New "Line.283" bus1=s30.1.2.3 bus2=s35.1.2.3 phases=3 length=100 units=ft linecode=sec6 Seasons=1 Ratings=[400,] normamps=400 emergamps=600
New "Line.284" bus1=s35.1.2.3 bus2=s40.1.2.3 phases=3 length=25 units=ft linecode=sec6 Seasons=1 Ratings=[400,] normamps=400 emergamps=600
New "Line.285" bus1=s40.1.2.3 bus2=s57.1.2.3 phases=3 length=100 units=ft linecode=sec6 Seasons=1 Ratings=[400,] normamps=400 emergamps=600
New "Line.286" bus1=s57.1.2.3 bus2=s66.1.2.3 phases=3 length=100 units=ft linecode=sec6 Seasons=1 Ratings=[400,] normamps=400 emergamps=600
New "Line.287" bus1=s66.1.2.3 bus2=s71.1.2.3 phases=3 length=25 units=ft linecode=sec6 Seasons=1 Ratings=[400,] normamps=400 emergamps=600
New "Line.288" bus1=s71.1.2.3 bus2=s76.1.2.3 phases=3 length=100 units=ft linecode=sec6 Seasons=1 Ratings=[400,] normamps=400 emergamps=600
New "Line.289" bus1=s76.1.2.3 bus2=s81.1.2.3 phases=3 length=25 units=ft linecode=sec6 Seasons=1 Ratings=[400,] normamps=400 emergamps=600
New "Line.290" bus1=s81.1.2.3 bus2=s98.1.2.3 phases=3 length=100 units=ft linecode=sec6 Seasons=1 Ratings=[400,] normamps=400 emergamps=600
New "Line.291" bus1=s98.1.2.3 bus2=s107.1.2.3 phases=3 length=100 units=ft linecode=sec6 Seasons=1 Ratings=[400,] normamps=400 emergamps=600
New "Line.292" bus1=s107.1.2.3 bus2=s112.1.2.3 phases=3 length=25 units=ft linecode=sec6 Seasons=1 Ratings=[400,] normamps=400 emergamps=600
New "Line.293" bus1=s112.1.2.3 bus2=s117.1.2.3 phases=3 length=100 units=ft linecode=sec6 Seasons=1 Ratings=[400,] normamps=400 emergamps=600
New "Line.294" bus1=s117.1.2.3 bus2=s122.1.2.3 phases=3 length=25 units=ft linecode=sec6 Seasons=1 Ratings=[400,] normamps=400 emergamps=600
New "Line.295" bus1=s122.1.2.3 bus2=s139.1.2.3 phases=3 length=100 units=ft linecode=sec6 Seasons=1 Ratings=[400,] normamps=400 emergamps=600
New "Line.296" bus1=s21.1.2.3 bus2=s26.1.2.3 phases=3 length=100 units=ft linecode=sec6 Seasons=1 Ratings=[400,] normamps=400 emergamps=600
New "Line.297" bus1=s26.1.2.3 bus2=s31.1.2.3 phases=3 length=25 units=ft linecode=sec6 Seasons=1 Ratings=[400,] normamps=400 emergamps=600
New "Line.298" bus1=s31.1.2.3 bus2=s36.1.2.3 phases=3 length=25 units=ft linecode=sec6 Seasons=1 Ratings=[400,] normamps=400 emergamps=600
New "Line.299" bus1=s36.1.2.3 bus2=s41.1.2.3 phases=3 length=100 units=ft linecode=sec6 Seasons=1 Ratings=[400,] normamps=400 emergamps=600
New "Line.300" bus1=s41.1.2.3 bus2=s62.1.2.3 phases=3 length=100 units=ft linecode=sec6 Seasons=1 Ratings=[400,] normamps=400 emergamps=600
New "Line.301" bus1=s62.1.2.3 bus2=s67.1.2.3 phases=3 length=100 units=ft linecode=sec6 Seasons=1 Ratings=[400,] normamps=400 emergamps=600
New "Line.302" bus1=s67.1.2.3 bus2=s72.1.2.3 phases=3 length=25 units=ft linecode=sec6 Seasons=1 Ratings=[400,] normamps=400 emergamps=600
New "Line.303" bus1=s72.1.2.3 bus2=s77.1.2.3 phases=3 length=25 units=ft linecode=sec6 Seasons=1 Ratings=[400,] normamps=400 emergamps=600
New "Line.304" bus1=s77.1.2.3 bus2=s82.1.2.3 phases=3 length=100 units=ft linecode=sec6 Seasons=1 Ratings=[400,] normamps=400 emergamps=600
New "Line.305" bus1=s82.1.2.3 bus2=s103.1.2.3 phases=3 length=100 units=ft linecode=sec6 Seasons=1 Ratings=[400,] normamps=400 emergamps=600
New "Line.306" bus1=s103.1.2.3 bus2=s108.1.2.3 phases=3 length=100 units=ft linecode=sec6 Seasons=1 Ratings=[400,] normamps=400 emergamps=600
New "Line.307" bus1=s108.1.2.3 bus2=s113.1.2.3 phases=3 length=25 units=ft linecode=sec6 Seasons=1 Ratings=[400,] normamps=400 emergamps=600
New "Line.308" bus1=s113.1.2.3 bus2=s118.1.2.3 phases=3 length=25 units=ft linecode=sec6 Seasons=1 Ratings=[400,] normamps=400 emergamps=600
New "Line.309" bus1=s118.1.2.3 bus2=s123.1.2.3 phases=3 length=100 units=ft linecode=sec6 Seasons=1 Ratings=[400,] normamps=400 emergamps=600
New "Line.310" bus1=s123.1.2.3 bus2=s144.1.2.3 phases=3 length=100 units=ft linecode=sec6 Seasons=1 Ratings=[400,] normamps=400 emergamps=600
New "Line.1_sw" bus1=p3.1.2.3 bus2=p4.1.2.3 phases=3 Switch=True linecode=switch Seasons=1 Ratings=[400,] normamps=400 emergamps=600 length=1
New "Line.2_sw" bus1=p5.1.2.3 bus2=p6.1.2.3 phases=3 Switch=True linecode=switch Seasons=1 Ratings=[400,] normamps=400 emergamps=600 length=1
New "Line.3_sw" bus1=p7.1.2.3 bus2=p8.1.2.3 phases=3 Switch=True linecode=switch Seasons=1 Ratings=[400,] normamps=400 emergamps=600 length=1
New "Line.4_sw" bus1=p9.1.2.3 bus2=p10.1.2.3 phases=3 Switch=True linecode=switch Seasons=1 Ratings=[400,] normamps=400 emergamps=600 length=1
New "Line.5_sw" bus1=p11.1.2.3 bus2=p12.1.2.3 phases=3 Switch=True linecode=switch Seasons=1 Ratings=[400,] normamps=400 emergamps=600 length=1
New "Line.6_sw" bus1=p27.1.2.3 bus2=p28.1.2.3 phases=3 Switch=True linecode=switch Seasons=1 Ratings=[400,] normamps=400 emergamps=600 length=1
New "Line.7_sw" bus1=p45.1.2.3 bus2=p46.1.2.3 phases=3 Switch=True linecode=switch Seasons=1 Ratings=[400,] normamps=400 emergamps=600 length=1
New "Line.8_sw" bus1=p62.1.2.3 bus2=p63.1.2.3 phases=3 Switch=True linecode=switch Seasons=1 Ratings=[400,] normamps=400 emergamps=600 length=1
New "Line.9_sw" bus1=p81.1.2.3 bus2=p82.1.2.3 phases=3 Switch=True linecode=switch Seasons=1 Ratings=[400,] normamps=400 emergamps=600 length=1
New "Line.10_sw" bus1=p97.1.2.3 bus2=p98.1.2.3 phases=3 Switch=True linecode=switch Seasons=1 Ratings=[400,] normamps=400 emergamps=600 length=1
New "Line.11_sw" bus1=p117.1.2.3 bus2=p118.1.2.3 phases=3 Switch=True linecode=switch Seasons=1 Ratings=[400,] normamps=400 emergamps=600 length=1
New "Line.12_sw" bus1=p134.1.2.3 bus2=p135.1.2.3 phases=3 Switch=True linecode=switch Seasons=1 Ratings=[400,] normamps=400 emergamps=600 length=1
New "Line.13_sw" bus1=s148.1.2.3 bus2=s27.1.2.3 phases=3 Switch=True linecode=switch Seasons=1 Ratings=[400,] normamps=400 emergamps=600 length=1
New "Line.14_sw" bus1=s145.1.2.3 bus2=s4.1.2.3 phases=3 Switch=True linecode=switch Seasons=1 Ratings=[400,] normamps=400 emergamps=600 length=1
New "Line.15_sw" bus1=s152.1.2.3 bus2=s28.1.2.3 phases=3 Switch=True linecode=switch Seasons=1 Ratings=[400,] normamps=400 emergamps=600 length=1
New "Line.16_sw" bus1=s149.1.2.3 bus2=s9.1.2.3 phases=3 Switch=True linecode=switch Seasons=1 Ratings=[400,] normamps=400 emergamps=600 length=1
New "Line.17_sw" bus1=s156.1.2.3 bus2=s29.1.2.3 phases=3 Switch=True linecode=switch Seasons=1 Ratings=[400,] normamps=400 emergamps=600 length=1
New "Line.18_sw" bus1=s153.1.2.3 bus2=s14.1.2.3 phases=3 Switch=True linecode=switch Seasons=1 Ratings=[400,] normamps=400 emergamps=600 length=1
New "Line.19_sw" bus1=s160.1.2.3 bus2=s30.1.2.3 phases=3 Switch=True linecode=switch Seasons=1 Ratings=[400,] normamps=400 emergamps=600 length=1
New "Line.20_sw" bus1=s157.1.2.3 bus2=s19.1.2.3 phases=3 Switch=True linecode=switch Seasons=1 Ratings=[400,] normamps=400 emergamps=600 length=1
New "Line.21_sw" bus1=s147.1.2.3 bus2=s44.1.2.3 phases=3 Switch=True linecode=switch Seasons=1 Ratings=[400,] normamps=400 emergamps=600 length=1
New "Line.22_sw" bus1=s146.1.2.3 bus2=s33.1.2.3 phases=3 Switch=True linecode=switch Seasons=1 Ratings=[400,] normamps=400 emergamps=600 length=1
New "Line.23_sw" bus1=s151.1.2.3 bus2=s49.1.2.3 phases=3 Switch=True linecode=switch Seasons=1 Ratings=[400,] normamps=400 emergamps=600 length=1
New "Line.24_sw" bus1=s150.1.2.3 bus2=s34.1.2.3 phases=3 Switch=True linecode=switch Seasons=1 Ratings=[400,] normamps=400 emergamps=600 length=1
New "Line.25_sw" bus1=s155.1.2.3 bus2=s54.1.2.3 phases=3 Switch=True linecode=switch Seasons=1 Ratings=[400,] normamps=400 emergamps=600 length=1
New "Line.26_sw" bus1=s154.1.2.3 bus2=s35.1.2.3 phases=3 Switch=True linecode=switch Seasons=1 Ratings=[400,] normamps=400 emergamps=600 length=1
New "Line.27_sw" bus1=s159.1.2.3 bus2=s59.1.2.3 phases=3 Switch=True linecode=switch Seasons=1 Ratings=[400,] normamps=400 emergamps=600 length=1
New "Line.28_sw" bus1=s158.1.2.3 bus2=s36.1.2.3 phases=3 Switch=True linecode=switch Seasons=1 Ratings=[400,] normamps=400 emergamps=600 length=1
New "Line.29_sw" bus1=s164.1.2.3 bus2=s68.1.2.3 phases=3 Switch=True linecode=switch Seasons=1 Ratings=[400,] normamps=400 emergamps=600 length=1
New "Line.30_sw" bus1=s161.1.2.3 bus2=s45.1.2.3 phases=3 Switch=True linecode=switch Seasons=1 Ratings=[400,] normamps=400 emergamps=600 length=1
New "Line.31_sw" bus1=s168.1.2.3 bus2=s69.1.2.3 phases=3 Switch=True linecode=switch Seasons=1 Ratings=[400,] normamps=400 emergamps=600 length=1
New "Line.32_sw" bus1=s165.1.2.3 bus2=s50.1.2.3 phases=3 Switch=True linecode=switch Seasons=1 Ratings=[400,] normamps=400 emergamps=600 length=1
New "Line.33_sw" bus1=s172.1.2.3 bus2=s70.1.2.3 phases=3 Switch=True linecode=switch Seasons=1 Ratings=[400,] normamps=400 emergamps=600 length=1
New "Line.34_sw" bus1=s169.1.2.3 bus2=s55.1.2.3 phases=3 Switch=True linecode=switch Seasons=1 Ratings=[400,] normamps=400 emergamps=600 length=1
New "Line.35_sw" bus1=s176.1.2.3 bus2=s71.1.2.3 phases=3 Switch=True linecode=switch Seasons=1 Ratings=[400,] normamps=400 emergamps=600 length=1
New "Line.36_sw" bus1=s173.1.2.3 bus2=s60.1.2.3 phases=3 Switch=True linecode=switch Seasons=1 Ratings=[400,] normamps=400 emergamps=600 length=1
New "Line.37_sw" bus1=s163.1.2.3 bus2=s85.1.2.3 phases=3 Switch=True linecode=switch Seasons=1 Ratings=[400,] normamps=400 emergamps=600 length=1
New "Line.38_sw" bus1=s162.1.2.3 bus2=s74.1.2.3 phases=3 Switch=True linecode=switch Seasons=1 Ratings=[400,] normamps=400 emergamps=600 length=1
New "Line.39_sw" bus1=s167.1.2.3 bus2=s90.1.2.3 phases=3 Switch=True linecode=switch Seasons=1 Ratings=[400,] normamps=400 emergamps=600 length=1
New "Line.40_sw" bus1=s166.1.2.3 bus2=s75.1.2.3 phases=3 Switch=True linecode=switch Seasons=1 Ratings=[400,] normamps=400 emergamps=600 length=1
New "Line.41_sw" bus1=s171.1.2.3 bus2=s95.1.2.3 phases=3 Switch=True linecode=switch Seasons=1 Ratings=[400,] normamps=400 emergamps=600 length=1
New "Line.42_sw" bus1=s170.1.2.3 bus2=s76.1.2.3 phases=3 Switch=True linecode=switch Seasons=1 Ratings=[400,] normamps=400 emergamps=600 length=1
New "Line.43_sw" bus1=s175.1.2.3 bus2=s100.1.2.3 phases=3 Switch=True linecode=switch Seasons=1 Ratings=[400,] normamps=400 emergamps=600 length=1
New "Line.44_sw" bus1=s174.1.2.3 bus2=s77.1.2.3 phases=3 Switch=True linecode=switch Seasons=1 Ratings=[400,] normamps=400 emergamps=600 length=1
New "Line.45_sw" bus1=s180.1.2.3 bus2=s109.1.2.3 phases=3 Switch=True linecode=switch Seasons=1 Ratings=[400,] normamps=400 emergamps=600 length=1
New "Line.46_sw" bus1=s177.1.2.3 bus2=s86.1.2.3 phases=3 Switch=True linecode=switch Seasons=1 Ratings=[400,] normamps=400 emergamps=600 length=1
New "Line.47_sw" bus1=s184.1.2.3 bus2=s110.1.2.3 phases=3 Switch=True linecode=switch Seasons=1 Ratings=[400,] normamps=400 emergamps=600 length=1
New "Line.48_sw" bus1=s181.1.2.3 bus2=s91.1.2.3 phases=3 Switch=True linecode=switch Seasons=1 Ratings=[400,] normamps=400 emergamps=600 length=1
New "Line.49_sw" bus1=s188.1.2.3 bus2=s111.1.2.3 phases=3 Switch=True linecode=switch Seasons=1 Ratings=[400,] normamps=400 emergamps=600 length=1
New "Line.50_sw" bus1=s185.1.2.3 bus2=s96.1.2.3 phases=3 Switch=True linecode=switch Seasons=1 Ratings=[400,] normamps=400 emergamps=600 length=1
New "Line.51_sw" bus1=s192.1.2.3 bus2=s112.1.2.3 phases=3 Switch=True linecode=switch Seasons=1 Ratings=[400,] normamps=400 emergamps=600 length=1
New "Line.52_sw" bus1=s189.1.2.3 bus2=s101.1.2.3 phases=3 Switch=True linecode=switch Seasons=1 Ratings=[400,] normamps=400 emergamps=600 length=1
New "Line.53_sw" bus1=s179.1.2.3 bus2=s126.1.2.3 phases=3 Switch=True linecode=switch Seasons=1 Ratings=[400,] normamps=400 emergamps=600 length=1
New "Line.54_sw" bus1=s178.1.2.3 bus2=s115.1.2.3 phases=3 Switch=True linecode=switch Seasons=1 Ratings=[400,] normamps=400 emergamps=600 length=1
New "Line.55_sw" bus1=s183.1.2.3 bus2=s131.1.2.3 phases=3 Switch=True linecode=switch Seasons=1 Ratings=[400,] normamps=400 emergamps=600 length=1
New "Line.56_sw" bus1=s182.1.2.3 bus2=s116.1.2.3 phases=3 Switch=True linecode=switch Seasons=1 Ratings=[400,] normamps=400 emergamps=600 length=1
New "Line.57_sw" bus1=s187.1.2.3 bus2=s136.1.2.3 phases=3 Switch=True linecode=switch Seasons=1 Ratings=[400,] normamps=400 emergamps=600 length=1
New "Line.58_sw" bus1=s186.1.2.3 bus2=s117.1.2.3 phases=3 Switch=True linecode=switch Seasons=1 Ratings=[400,] normamps=400 emergamps=600 length=1
New "Line.59_sw" bus1=s191.1.2.3 bus2=s141.1.2.3 phases=3 Switch=True linecode=switch Seasons=1 Ratings=[400,] normamps=400 emergamps=600 length=1
New "Line.60_sw" bus1=s190.1.2.3 bus2=s118.1.2.3 phases=3 Switch=True linecode=switch Seasons=1 Ratings=[400,] normamps=400 emergamps=600 length=1
New "Line.61_sw" bus1=s196.1.2.3 bus2=s194.1.2.3 phases=3 Switch=True linecode=switch Seasons=1 Ratings=[400,] normamps=400 emergamps=600 length=1
New "Line.62_sw" bus1=s197.1.2.3 bus2=s195.1.2.3 phases=3 Switch=True linecode=switch Seasons=1 Ratings=[400,] normamps=400 emergamps=600 length=1
New "Line.63_sw" bus1=s201.1.2.3 bus2=s199.1.2.3 phases=3 Switch=True linecode=switch Seasons=1 Ratings=[400,] normamps=400 emergamps=600 length=1
New "Line.64_sw" bus1=s202.1.2.3 bus2=s200.1.2.3 phases=3 Switch=True linecode=switch Seasons=1 Ratings=[400,] normamps=400 emergamps=600 length=1
New "Line.65_sw" bus1=s207.1.2.3 bus2=s204.1.2.3 phases=3 Switch=True linecode=switch Seasons=1 Ratings=[400,] normamps=400 emergamps=600 length=1
New "Line.66_sw" bus1=s208.1.2.3 bus2=s205.1.2.3 phases=3 Switch=True linecode=switch Seasons=1 Ratings=[400,] normamps=400 emergamps=600 length=1
New "Line.67_sw" bus1=s209.1.2.3 bus2=s206.1.2.3 phases=3 Switch=True linecode=switch Seasons=1 Ratings=[400,] normamps=400 emergamps=600 length=1
New "Line.68_sw" bus1=s214.1.2.3 bus2=s211.1.2.3 phases=3 Switch=True linecode=switch Seasons=1 Ratings=[400,] normamps=400 emergamps=600 length=1
New "Line.69_sw" bus1=s215.1.2.3 bus2=s212.1.2.3 phases=3 Switch=True linecode=switch Seasons=1 Ratings=[400,] normamps=400 emergamps=600 length=1
New "Line.70_sw" bus1=s216.1.2.3 bus2=s213.1.2.3 phases=3 Switch=True linecode=switch Seasons=1 Ratings=[400,] normamps=400 emergamps=600 length=1
New "Line.71_sw" bus1=s221.1.2.3 bus2=s218.1.2.3 phases=3 Switch=True linecode=switch Seasons=1 Ratings=[400,] normamps=400 emergamps=600 length=1
New "Line.72_sw" bus1=s222.1.2.3 bus2=s219.1.2.3 phases=3 Switch=True linecode=switch Seasons=1 Ratings=[400,] normamps=400 emergamps=600 length=1
New "Line.73_sw" bus1=s223.1.2.3 bus2=s220.1.2.3 phases=3 Switch=True linecode=switch Seasons=1 Ratings=[400,] normamps=400 emergamps=600 length=1
New "Line.74_sw" bus1=s228.1.2.3 bus2=s225.1.2.3 phases=3 Switch=True linecode=switch Seasons=1 Ratings=[400,] normamps=400 emergamps=600 length=1
New "Line.75_sw" bus1=s229.1.2.3 bus2=s226.1.2.3 phases=3 Switch=True linecode=switch Seasons=1 Ratings=[400,] normamps=400 emergamps=600 length=1
New "Line.76_sw" bus1=s230.1.2.3 bus2=s227.1.2.3 phases=3 Switch=True linecode=switch Seasons=1 Ratings=[400,] normamps=400 emergamps=600 length=1
New "Line.77_sw" bus1=s234.1.2.3 bus2=s232.1.2.3 phases=3 Switch=True linecode=switch Seasons=1 Ratings=[400,] normamps=400 emergamps=600 length=1
New "Line.78_sw" bus1=s235.1.2.3 bus2=s233.1.2.3 phases=3 Switch=True linecode=switch Seasons=1 Ratings=[400,] normamps=400 emergamps=600 length=1
New "Line.79_sw" bus1=s238.1.2.3 bus2=s237.1.2.3 phases=3 Switch=True linecode=switch Seasons=1 Ratings=[400,] normamps=400 emergamps=600 length=1
New "Line.80_sw" bus1=s240.1.2.3 bus2=s239.1.2.3 phases=3 Switch=True linecode=switch Seasons=1 Ratings=[400,] normamps=400 emergamps=600 length=1
